YYYY MM DD HH    DURATION(hhhh) #RECORDS
YYYY MM DD HH MM DURATION(hhmm) LAT LON HGT(m) RATE(/h) AREA(m2) HEAT(w)
2012 07 22 07 2 2
2012 07 22 07 00 0100 36.0 -86.8 1.8 187000 0.0 0.0
2012 07 22 08 00 0100 36.0 -86.8 1.8 188000 0.0 0.0
