YYYY MM DD HH    DURATION(hhhh) #RECORDS
YYYY MM DD HH MM DURATION(hhmm) LAT LON HGT(m) RATE(/h) AREA(m2) HEAT(w)
2012 07 22 23 1 1
2012 07 22 23 00 0100 36.2565 -86.8346 1.8 203000 0.0 0.0
