*EXP.DETAILS: UINT1601MZ N TRACK                                                     

*FILES
@N  EXP.DATA    AFILE        ADIR
  1 EXP         UINT1601.MZA                                                                                 
@N  SPECIES     SPFILE       SPDIR
  1 SPE         MZCER046.SPE C:\DSSAT46\GENOTYPE\                                                            
@N  ECOTYPE     EFILE        EDIR
  1 ECO         MZCER046.ECO C:\DSSAT46\GENOTYPE\                                                            
@N  CULTIVAR    CFILE        CDIR
  1 CUL         MZCER046.CUL C:\DSSAT46\GENOTYPE\                                                            
@N  SOIL        SFILE        SDIR
  1 SOIL        UI.SOL       C:\DSSAT46\SOIL\                                                                
@N  WEATHER     WFILE        WDIR
  1 WEATH       UINT1601.WTH C:\DSSAT46\Weather\                                                             

*SIMULATION CONTROL
@N  GENERAL     NYERS NREPS START   SDATE RSEED SNAME.................... MODEL...
  1 GE              1     1     S 2016316  2150 DEFAULT SIMULATION CONTR  MZCER046
@N  OPTIONS     WATER NITRO SYMBI PHOSP POTAS DISES  CHEM  TILL   CO2
  1 OP              Y     Y     N     N     N     N     N     Y     M
@N  METHODS     WTHER INCON LIGHT EVAPO INFIL PHOTO HYDRO NSWIT SOMDY MESEV MESOL METMP
  1 ME              M     M     E     R     S     C     R     1     P     S     1     D
@N  MANAGEMENT  PLANT IRRIG FERTI RESID HARVS
  1 MA              R     R     R     R     R
@N  OUTPUTS     FNAME OVVEW SUMRY FROPT GROUT CAOUT WAOUT NIOUT MIOUT DIOUT  LONG CHOUT OPOUT
  1 OU              N     Y     Y     1     Y     Y     Y     Y     Y     N     Y     Y     Y

!AUTOMATIC MANAGEM
@N  PLANTING      PFRST   PLAST PH2OL PH2OU PH2OD PSTMX PSTMN
  1 PL          2014001 2014001   40.  100.   30.   40.   10.
@N  IRRIGATION  IMDEP ITHRL ITHRU IROFF IMETH IRAMT IREFF
  1 IR            30.   50.  100. GS000 IR001  10.0 1.000
@N  NITROGEN    NMDEP NMTHR NAMNT NCODE NAOFF
  1 NI            30.   50.   25. FE001 GS000
@N  RESIDUES    RIPCN RTIME RIDEP
  1 RE           100.     1   20.
@N  HARVEST     HFRST   HLAST HPCNP HRCNR
  1 HA              0 2014001  100.    0.

*TREATMENTS
@N   R O C TNAME....................  CU  FL  SA  IC  MP  MI  MF  MR  MC  MT  ME  MH  SM
  1  1 1 0 Sim1                        1   1   0   1   1   0   1   0   0   0   0   1   1

*CULTIVARS
@C  CR INGENO CNAME
  1 MZ PC0001 2500-2600 GDD   

*FIELDS
@L  ID_FIELD WSTA....  FLSA  FLOB  FLDT  FLDD  FLDS  FLST SLTX   SLDP ID_SOIL
  1 UINT1601 UINT1601   0.0  -99. DR002  -99.  100.   -99 SICL   -99. UINT190001
@L             XCRD            YCRD      ELEV              AREA  SLEN  FLWR  SLAS PRMGT
  1       -88.85700        41.84300    -99.00               1.0  100.   1.0 -99.0   -99   -99

*INITIAL CONDITIONS
@C  PCR     ICDAT  ICRT  ICND  ICRN  ICRE  ICWD ICRES ICREN ICREP ICRIP ICRID
  1 MZ    2016305     0     0  1.00  1.00   0.0  4942  1.20  0.00  100.   15.
@C   ICBL  SH2O  SNH4  SNO3
  1    5. 0.273   5.4   5.2
  1   15. 0.270   5.4   5.2
  1   30. 0.270   4.5   3.1
  1   45. 0.270   4.1   2.1
  1   60. 0.270   4.1   2.1
  1   90. 0.270   4.1   2.1
  1  120. 0.270   4.1   2.1
  1  150. 0.270   4.1   2.1

*PLANTING DETAILS
@P    PDATE   EDATE  PPOP  PPOE  PLME  PLDS  PLRS  PLRD  PLDP  PLWT  PAGE  PENV  PLPH  SPRL
  1 2017138     -99   8.0   7.0     S     R   50.  -99.   4.0  -99.  -99. -99.0 -99.0 -99.0

*IRRIGATION
@I   IEFF  IDEP  ITHR  IEPT  IOFF  IAME  IAMT
  0 1.000    0.    0.    0. GS000 IR001   0.0
@I    IDATE  IROP IRVAL

*FERTILIZERS
@F    FDATE  FMCD  FACD  FDEP  FAMN  FAMP  FAMK  FAMC  FAMO  FOCD
  1 2016321 FE004   001    2.    0.  -99.  -99.  -99.  -99.  -99 

*RESIDUES
@R    RDATE  RCOD  RAMT  RESN  RESP  RESK  RINP  RDEP  RMET

*CHEMICALS
@C    CDATE CHCOD CHAMT  CHME CHDEP   CHT

*TILLAGE
@T    TDATE TIMPL  TDEP

*ENVIRONMENT
@E    ODATE  EDAY  ERAD  EMAX  EMIN ERAIN  ECO2  EDEW EWIND

*HARVEST
@H    HDATE  HSTG  HCOM HSIZE   HPC  HBPC
  1 2017288 GS000   -99   -99  100.    0.
