*MODEL INPUT FILE            A     1     1     1     1     0
*FILES              
MODEL          MZCER046
FILEX          UINT1601.MZX                                                                                 
FILEA          UINT1601.MZA                                                                                 
FILET          UINT1601.MZT                                                                                 
SPECIES        MZCER046.SPE C:\DSSAT46\GENOTYPE\                                                            
ECOTYPE        MZCER046.ECO C:\DSSAT46\GENOTYPE\                                                            
CULTIVAR       MZCER046.CUL C:\DSSAT46\GENOTYPE\                                                            
PESTS          MZCER046.PST C:\DSSAT46\PEST\                                                                
SOILS          UI.SOL       C:\DSSAT46\SOIL\                                                                
WEATHER        UINT1601.WTH C:\DSSAT46\Weather\                                                             
OUTPUT         OVERVIEW
*SIMULATION CONTROL 
                   1     1     S 2016316  2150 DEFAULT SIMULATION CONTR 
                   Y     Y     N     N     N     N     N     Y     M
                   M     M     E     R     S     C     R     1     P     S     1     D
                   R     R     R     R     R
                   N     Y     Y     1     Y     Y     Y     Y     Y     N     Y     Y     Y
!AUTOMATIC MANAGEM  
               2014001 2014001   40.  100.   30.   40.   10.
                 30.   50.  100. GS000 IR001  10.0 1.000
                 30.   50.   25. FE001 GS000
                100.     1   20.
                     0 2014001  100.    0.
*EXP.DETAILS        
  1UINT1601 MZ N TRACK                                                     
*TREATMENTS         
  1 1 1 0 Sim1                     
*CULTIVARS          
   MZ PC0001 2500-2600 GDD   
*FIELDS             
   UINT1601 UINT1601   0.0  -99. DR002  -99. 100.0   -99 SICL   -99. UINT190001
         -88.85700        41.84300    -99.00               1.0  100.   1.0 -99.0   -99   -99
*INITIAL CONDITIONS 
   MZ    2016305     0     0  1.00  1.00   0.0  4942  1.20  0.00  100.   15.
      5. 0.273  5.40  5.20
     15. 0.270  5.40  5.20
     30. 0.270  4.53  3.13
     45. 0.270  4.10  2.10
     60. 0.270  4.10  2.10
     90. 0.270  4.10  2.10
    120. 0.270  4.10  2.10
    150. 0.270  4.10  2.10
*PLANTING DETAILS   
   2017138     -99   8.0   7.0     S     R   50.  -99.   4.0  -99.  -99. -99.0 -99.0 -99.0
*IRRIGATION         
   1.000    0.    0.    0. GS000 IR001   0.0
*FERTILIZERS        
   2016321 FE004   001    2.    0.  -99.  -99.  -99.  -99.  -99 
*RESIDUES           
*CHEMICALS          
*TILLAGE            
*ENVIRONMENT        
*HARVEST            
   2017288 GS000   -99   -99  100.    0.
*SOIL               
 UINT190001  GSSURGO     SICL   -99. DEEP SILTY CLAY                                   
 Urbana      USA          42.072 -88.773                                                   
 -99    0.10 -99.0  0.05   61.  1.00  1.00 IB001 IB001 IB001 -99  
    5.       0.174 0.376 0.441 1.000  -99.  1.40 1.150  31.0  63.0   0.0  -9.0  6.00-99.00 30.50-99.00
   15.       0.174 0.371 0.441 1.000  -99.  1.40 1.030  31.0  63.0   0.0  -9.0  6.00-99.00 30.50-99.00
   30.       0.175 0.350 0.438 0.667  -99.  1.41 0.517  31.1  62.9   0.0  -9.0  6.07-99.00 29.30-99.00
   45.       0.175 0.340 0.436 0.500  -99.  1.42 0.260  31.2  62.8   0.0  -9.0  6.10-99.00 28.70-99.00
   60.       0.177 0.282 0.418 0.313  -99.  1.47 0.187  31.7  62.3   0.0  -9.0  6.37-99.00 22.97-99.00
   90.       0.178 0.253 0.409 0.220  -99.  1.49 0.150  31.9  62.1   0.0  -9.0  6.50-99.00 20.10-99.00
  120.       0.170 0.244 0.368 0.127  -99.  1.59 0.137  30.1  59.2   0.0  -9.0  7.03-99.00 18.83-99.00
  150.       0.166 0.240 0.347 0.080  -99.  1.64 0.130  29.2  57.8   0.0  -9.0  7.30-99.00 18.20-99.00
                    
    5.-99.00 -99.0 -99.0 -99.0 -99.0 -99.0 -99.0 -99.0 -99.0 -99.0-99.00 -99.0 -99.0 -99.0 -99.0 -99.0  -99.
   15.-99.00 -99.0 -99.0 -99.0 -99.0 -99.0 -99.0 -99.0 -99.0 -99.0-99.00 -99.0 -99.0 -99.0 -99.0 -99.0  -99.
   30.-99.00 -99.0 -99.0 -99.0 -99.0 -99.0 -99.0 -99.0 -99.0 -99.0-99.00 -99.0 -99.0 -99.0 -99.0 -99.0  -99.
   45.-99.00 -99.0 -99.0 -99.0 -99.0 -99.0 -99.0 -99.0 -99.0 -99.0-99.00 -99.0 -99.0 -99.0 -99.0 -99.0  -99.
   60.-99.00 -99.0 -99.0 -99.0 -99.0 -99.0 -99.0 -99.0 -99.0 -99.0-99.00 -99.0 -99.0 -99.0 -99.0 -99.0  -99.
   90.-99.00 -99.0 -99.0 -99.0 -99.0 -99.0 -99.0 -99.0 -99.0 -99.0-99.00 -99.0 -99.0 -99.0 -99.0 -99.0  -99.
  120.-99.00 -99.0 -99.0 -99.0 -99.0 -99.0 -99.0 -99.0 -99.0 -99.0-99.00 -99.0 -99.0 -99.0 -99.0 -99.0  -99.
  150.-99.00 -99.0 -99.0 -99.0 -99.0 -99.0 -99.0 -99.0 -99.0 -99.0-99.00 -99.0 -99.0 -99.0 -99.0 -99.0  -99.
                    
    5.-99.00-99.00-99.00-99.00
   15.-99.00-99.00-99.00-99.00
   30.-99.00-99.00-99.00-99.00
   45.-99.00-99.00-99.00-99.00
   60.-99.00-99.00-99.00-99.00
   90.-99.00-99.00-99.00-99.00
  120.-99.00-99.00-99.00-99.00
  150.-99.00-99.00-99.00-99.00
*CULTIVAR           
PC0001 2500-2600 GDD    IB0001  160.0 0.750 780.0 750.0  8.50 49.00
