*SOILS: Urbana Soil Input File

*UINT170001  GSSURGO     SICL    120 DEEP SILTY CLAY
@SITE        COUNTRY          LAT     LONG SCS FAMILY
 Urbana      USA           40.398  -88.360
@ SCOM  SALB  SLU1  SLDR  SLRO  SLNF  SLPF  SMHB  SMPX  SMKE 
   -99  0.10   -99  0.05    61  1.00  1.00 IB001 IB001 IB001
@  SLB  SLMH  SLLL  SDUL  SSAT  SRGF  SSKS  SBDM  SLOC  SLCL  SLSI  SLCF  SLNI  SLHW  SLHB  SCEC  SADC
     5   -99 0.169 0.389 0.439  1.00   -99  1.50  1.14  30.0  61.9   0.0   -99   6.1   -99  25.6   -99
    20   -99 0.169 0.390 0.440  1.00   -99  1.50  1.14  30.0  61.9   0.0   -99   6.1   -99  25.6   -99
    50   -99 0.171 0.345 0.395  0.50   -99  1.57  0.26  30.3  61.6   0.0   -99   6.3   -99  25.4   -99
   100   -99 0.171 0.339 0.389  0.22   -99  1.69  0.16  30.3  59.2   0.0   -99   6.7   -99  24.3   -99
   150   -99 0.127 0.268 0.323  0.08   -99  1.66  0.11  20.5  35.8   0.0   -99   7.3   -99  16.2   -99