*SOILS: Urbana Soil Input File

*UINT190001  GSSURGO     SICL    120 DEEP SILTY CLAY
@SITE        COUNTRY          LAT     LONG SCS FAMILY
 Urbana      USA           42.072  -88.773
@ SCOM  SALB  SLU1  SLDR  SLRO  SLNF  SLPF  SMHB  SMPX  SMKE 
   -99  0.10   -99  0.05    61  1.00  1.00 IB001 IB001 IB001
@  SLB  SLMH  SLLL  SDUL  SSAT  SRGF  SSKS  SBDM  SLOC  SLCL  SLSI  SLCF  SLNI  SLHW  SLHB  SCEC  SADC
     5   -99 0.174 0.376 0.441  1.00   -99  1.40  1.15  31.0  63.0   0.0   -99   6.0   -99  30.5   -99
    20   -99 0.174 0.371 0.441  1.00   -99  1.40  1.03  31.0  63.0   0.0   -99   6.0   -99  30.5   -99
    50   -99 0.175 0.340 0.436  0.50   -99  1.42  0.26  31.2  62.8   0.0   -99   6.1   -99  28.7   -99
   100   -99 0.178 0.253 0.409  0.22   -99  1.49  0.15  31.9  62.1   0.0   -99   6.5   -99  20.1   -99
   150   -99 0.166 0.240 0.347  0.08   -99  1.64  0.13  29.2  57.8   0.0   -99   7.3   -99  18.2   -99